         648
  Built with Packmol                                             
  O            8.526821        2.212674       20.380231
  H            9.308749        1.802506       19.910815
  H            7.861516        1.500528       20.604322
  O           12.868304        4.513825       19.682843
  H           12.647053        3.645440       19.239045
  H           13.499843        5.031664       19.105781
  O           11.584394        5.710822       18.175849
  H           12.086764        6.573583       18.233017
  H           10.612637        5.879382       18.341005
  O            9.622955        9.920286        8.618261
  H            9.848989        9.102138        8.089543
  H            8.786567        9.758222        9.141893
  O            7.869104        4.733357        7.709445
  H            6.929267        5.065274        7.628598
  H            8.387491        4.998996        6.896604
  O            6.899045        9.506547       10.990599
  H            6.770541        9.718024       10.021701
  H            7.745646        9.928864       11.314505
  O           12.558145        2.025419       22.420043
  H           13.500149        1.690583       22.442715
  H           12.033661        1.499963       21.750109
  O            8.847331       13.430432        1.508744
  H            9.753808       13.008201        1.504206
  H            8.147082       12.716583        1.500338
  O            2.076897        9.465089       16.248734
  H            1.499972        9.414642       15.433496
  H            1.500008        9.561004       17.059904
  O           10.981855       10.134842       10.334918
  H           11.319112       10.820680       10.979808
  H           11.756720        9.691503        9.884325
  O           10.940414        4.482397        1.499990
  H           10.642303        5.436928        1.500011
  H           10.139832        3.883175        1.499979
  O            6.790912       10.479683        2.018224
  H            7.337683       10.558452        2.851793
  H            5.852591       10.230020        2.257435
  O           10.123701       12.887049        5.344671
  H            9.458042       13.476745        5.802008
  H           10.669895       13.431847        4.708379
  O           13.499899        4.906816       21.758469
  H           13.495577        3.906847       21.765077
  H           12.559093        5.244406       21.788766
  O            5.822771        4.348153        1.519197
  H            5.645620        5.332336        1.518136
  H            6.809526        4.187076        1.500006
  O            5.383326        8.883074        4.326107
  H            4.664939        9.464037        3.943480
  H            5.093672        7.926667        4.288889
  O           10.993117        4.071132       20.744165
  H           10.424370        4.489896       20.036236
  H           10.960472        3.075878       20.652494
  O            9.647589        6.047945       25.996344
  H           10.057727        5.218544       26.375659
  H            9.754422        6.047926       25.002067
  O            2.757635        7.471945       15.611117
  H            3.689428        7.112692       15.559164
  H            2.110088        6.712021       15.667659
  O           10.339997       13.500006       15.262119
  H           11.132447       13.009937       14.899000
  H            9.827790       12.898006       15.874687
  O            8.606733       13.376203       25.097964
  H            8.472069       13.206646       26.074241
  H            9.581591       13.499653       24.912461
  O           11.265437       13.334311       27.532038
  H           10.490492       13.499867       26.922078
  H           10.986410       13.499911       28.477935
  O           12.421120        5.094867       14.172731
  H           11.930352        4.285109       13.851113
  H           12.193613        5.263450       15.131803
  O            2.199309        2.739759       26.248558
  H            1.926480        1.793669       26.423134
  H            1.500069        3.359472       26.604954
  O            9.657733        5.466727        9.489158
  H            8.672002        5.621623        9.555050
  H           10.110533        5.854979       10.291798
  O            2.316021        8.061748        7.915651
  H            1.806558        8.253516        8.754502
  H            2.010772        7.190096        7.532185
  O            3.554242        8.288233       23.890108
  H            3.625412        7.722499       24.711619
  H            4.331751        8.102676       23.289235
  O            5.002367       10.443171       16.642165
  H            5.263251        9.513559       16.902475
  H            4.093160       10.648054       17.004609
  O            8.451335       12.505426       28.159541
  H            9.295916       12.092159       28.499974
  H            8.504846       13.499475       28.254420
  O            5.101528        4.570594       28.033499
  H            4.724790        3.770339       28.500040
  H            6.054945        4.697737       28.307051
  O            5.113489       12.082691       24.547838
  H            5.516526       11.389776       25.145692
  H            4.116390       12.034771       24.606966
  O            8.276546        8.986406       16.755677
  H            8.851471        9.804278       16.779029
  H            8.852268        8.172066       16.829116
  O            9.084796        8.171240       11.751487
  H            9.634109        7.340635       11.842872
  H            9.689473        8.964153       11.676286
  O            9.704487        9.288404       23.421318
  H            8.707323        9.341356       23.367834
  H            9.969727        8.862200       24.286186
  O            4.112071        7.112163       28.447896
  H            3.701217        6.201959       28.500123
  H            5.108264        7.027501       28.427160
  O           10.591103        7.029846       23.181345
  H            9.881601        7.286942       22.525213
  H           10.810536        6.060346       23.072176
  O           11.843103        8.484642       22.106149
  H           11.620980        9.428630       22.350176
  H           12.797692        8.431971       21.812918
  O            2.062360        3.526951       24.100095
  H            1.512540        4.279040       23.736696
  H            1.499542        2.702779       24.163141
  O           13.070723        7.059179       16.088565
  H           13.014773        7.848989       16.699360
  H           13.500032        6.295136       16.570159
  O           11.866865        6.894395       20.497297
  H           11.661976        7.758401       20.037391
  H           11.016755        6.479972       20.822207
  O           13.500012       10.162967        3.182877
  H           13.217142        9.399634        3.763658
  H           13.250766       11.026113        3.622029
  O            9.208388        2.713178       10.407978
  H            8.864953        3.647224       10.506011
  H           10.051159        2.722690        9.869790
  O           11.920925       11.470640       28.500083
  H           11.133025       10.858605       28.432062
  H           12.471953       11.398270       27.668741
  O            6.523954        5.612490       10.041174
  H            6.215392        4.661409       10.056479
  H            5.732506        6.218426        9.960851
  O            3.823645       10.853318       14.830402
  H            3.902018       11.849419       14.870911
  H            2.999634       10.604228       14.321522
  O            6.861302        2.054233       25.201172
  H            6.041143        1.500085       25.058834
  H            7.545709        1.516345       25.693374
  O            6.783099        2.043578       13.346742
  H            5.984051        1.500159       13.089412
  H            7.612355        1.500969       13.212913
  O            6.664172        9.085013        6.444941
  H            6.010753        9.808128        6.221003
  H            7.150768        9.323998        7.285244
  O            6.982598       13.221383       14.116600
  H            7.860397       13.499985       13.726920
  H            6.263545       13.330592       13.430279
  O            9.900662        3.789227       28.216182
  H           10.252686        4.681124       28.500081
  H           10.665351        3.184900       27.992491
  O            5.702846       10.316602       20.669705
  H            5.450459        9.423208       21.041388
  H            4.877449       10.861626       20.522505
  O           12.044575        8.366443       24.823962
  H           12.720562        8.680535       25.490586
  H           12.335670        7.489277       24.442068
  O           10.694155       12.715563       23.172388
  H           11.675929       12.905061       23.157865
  H           10.197751       13.499965       22.800506
  O            7.847819       12.126477       11.322991
  H            7.772302       13.122600       11.368123
  H            8.807835       11.860667       11.410811
  O            2.994998        5.932290       13.810547
  H            3.958035        6.092839       13.594254
  H            2.629739        5.227640       13.202226
  O            4.288008        4.579749       11.114096
  H            3.531888        4.155709       10.615626
  H            3.989714        5.457815       11.488289
  O            7.095805       10.793270       23.735075
  H            6.678695       11.352953       23.018993
  H            6.624600        9.912766       23.786821
  O           12.716312        2.448945        5.603376
  H           13.030266        1.499989        5.573114
  H           13.499989        3.062543        5.506694
  O            4.251059        3.552500       26.278589
  H            4.338162        2.718093       25.734366
  H            3.894214        4.289281       25.704294
  O           10.234642        2.358799       22.801300
  H           10.656713        1.780043       23.499079
  H            9.875119        1.785167       22.065305
  O            8.185076        7.778096        3.441462
  H            8.607990        8.683872        3.414756
  H            7.205853        7.872607        3.620876
  O            7.443208        7.515326       22.912641
  H            7.089586        6.604673       23.126331
  H            6.701538        8.087015       22.561789
  O            2.612984        6.308689       22.398332
  H            3.119043        6.160081       23.247932
  H            2.303730        5.429277       22.036398
  O            8.084680       12.870921       17.425430
  H            8.226841       11.903540       17.215757
  H            7.250351       12.975554       17.966675
  O            5.888408        1.499939       27.943298
  H            5.806736        2.269322       27.309753
  H            6.712431        1.611572       28.498747
  O            4.656865       11.990920       22.397676
  H            4.526496       11.042538       22.686769
  H            3.766459       12.436613       22.305296
  O            6.760870        6.569921       20.934816
  H            6.454100        6.812310       20.014414
  H            6.602838        5.595230       21.092940
  O           12.713884       12.163884       13.624977
  H           13.499904       12.298784       14.228281
  H           12.685124       12.897430       12.945946
  O            6.562421        3.458522        3.568479
  H            7.209139        2.785904        3.928119
  H            5.735681        2.991470        3.254850
  O           10.241424        2.226728       17.801558
  H           10.847768        1.806270       17.126605
  H           10.788484        2.700024       18.492004
  O            5.879884        6.998799       25.683513
  H            5.163884        7.404385       26.251707
  H            5.790429        7.333321       24.745381
  O            9.141536        7.747280       19.432710
  H            9.145075        6.785550       19.706685
  H            9.866961        7.905710       18.762890
  O           12.979843        8.845425        8.192583
  H           12.031251        8.598073        7.995124
  H           13.500597        8.020475        8.412291
  O            2.069150       12.040740       23.801581
  H            1.499812       12.860788       23.859674
  H            1.499800       11.256459       23.555117
  O            8.751983        3.301717       16.416398
  H            7.912855        2.850405       16.112783
  H            8.568376        4.270814       16.581137
  O           10.526516        3.314331        5.522879
  H           10.391425        2.471790        6.044295
  H            9.682416        3.546034        5.039342
  O            9.689074       10.281526       19.790121
  H            9.055990        9.922521       19.104322
  H           10.179169        9.523527       20.220520
  O            8.437807       13.500002        3.848657
  H            7.467928       13.390177        4.066084
  H            8.823938       12.614351        3.590735
  O           10.707748        6.464598       16.222424
  H           10.875937        7.438489       16.374897
  H            9.735733        6.319087       16.037998
  O            2.253830        3.451776        4.677646
  H            1.904490        3.564128        3.747410
  H            1.500008        3.214502        5.290388
  O            2.931337        8.111125       13.512881
  H            2.173167        8.759545       13.444111
  H            3.727854        8.570153       13.906396
  O            7.666490        9.218049       20.939989
  H            8.410971        8.655004       21.298778
  H            7.337552        8.827268       20.080286
  O            2.512372        6.854025       26.767652
  H            1.775874        6.275075       27.117490
  H            3.219827        6.280339       26.354866
  O            2.444601       10.913475       20.374563
  H            1.499980       10.585591       20.388046
  H            2.464602       11.882527       20.620606
  O            4.279169        2.376281       18.714405
  H            4.526806        1.500044       19.127787
  H            5.067998        2.990462       18.737414
  O            7.574742       11.353241        4.889464
  H            6.869680       11.703214        5.506236
  H            7.856229       10.441378        5.188244
  O            6.011359        2.657909       20.883961
  H            5.228169        2.088925       21.134704
  H            5.714198        3.607102       20.780390
  O            2.466110        6.689036       20.236856
  H            2.545194        7.684923       20.192651
  H            1.499890        6.431695       20.250816
  O            7.523533       10.794197       26.966399
  H            7.534634       11.215391       26.059496
  H            8.451282       10.517407       27.216734
  O            5.183158        9.090036       27.665331
  H            5.725428        9.432430       26.898057
  H            4.317218        9.588182       27.710037
  O            4.266544        2.074349        1.898190
  H            4.102530        2.976873        1.500006
  H            3.458639        1.500000        1.766234
  O           12.385993        7.602350       10.264611
  H           11.606560        7.493850       10.881629
  H           13.231416        7.391372       10.755272
  O            4.859919        4.244704       22.801838
  H            5.514469        3.507402       22.969023
  H            4.165681        4.243659       23.521582
  O            7.674837        1.500007        5.651374
  H            8.102098        2.332753        6.003486
  H            6.687077        1.543165        5.801267
  O            1.499761        5.456110        9.723431
  H            2.045984        4.847592        9.147804
  H            2.058568        5.785530       10.484494
  O           11.893830        4.508826       10.057672
  H           12.280808        5.405167       10.274056
  H           11.396353        4.160003       10.851925
  O           12.920994        7.437666        6.332341
  H           13.496427        8.233420        6.143522
  H           13.500036        6.639291        6.497592
  O            9.930892        8.950634       26.773979
  H           10.730854        9.330028       26.309089
  H           10.026829        9.079275       27.761018
  O            8.455848       10.996240       14.311644
  H            8.223595       11.651445       15.030507
  H            8.118835       11.332785       13.432349
  O            7.151716       13.500069       22.940691
  H            7.186933       13.306456       21.960245
  H            6.200462       13.488006       23.248865
  O            4.233140       11.120819       10.958684
  H            4.926519       11.230296       10.246477
  H            4.553561       11.547805       11.804269
  O           13.500003        9.161321       14.814640
  H           12.572530        8.791272       14.761189
  H           13.466822       10.157274       14.731117
  O            3.529667        7.157299        9.588849
  H            3.703184        6.294159        9.114632
  H            4.285746        7.789164        9.418289
  O           10.169133       11.396524       25.178987
  H           10.150646       11.451093       26.177326
  H            9.352259       10.918535       24.856119
  O            7.646461        8.331832       25.376262
  H            8.158009        9.183221       25.492261
  H            8.238237        7.641481       24.960070
  O            2.076480       11.400223       10.625939
  H            1.499963       12.216244       10.667616
  H            1.500009       10.589829       10.521340
  O            7.622271       12.466436        9.132990
  H            6.913818       11.766571        9.041982
  H            8.515106       12.026410        9.229023
  O            2.308424        2.847642       21.616903
  H            3.126440        3.414018       21.717240
  H            1.500020        3.434590       21.572456
  O            2.900394        1.503724       15.627596
  H            2.673281        1.500000       16.601458
  H            2.058516        1.539914       15.089143
  O            1.500007        9.957215        6.102014
  H            1.743118        9.052233        5.752866
  H            1.526579        9.947013        7.101608
  O            9.192618       11.516797        6.792276
  H            9.632674       10.653784        6.544167
  H            8.278875       11.332934        7.154584
  O            7.249167        1.857941       17.960933
  H            8.179179        1.500099       18.044759
  H            6.685945        1.500080       18.705726
  O           12.111740       12.885816        6.459705
  H           12.897951       13.403411        6.122111
  H           11.494972       13.499895        6.952152
  O            4.131451        3.117171       14.645442
  H            3.977743        4.097751       14.523634
  H            5.104056        2.915379       14.530037
  O            4.492197        4.352006       16.840390
  H            3.695470        3.993296       17.326758
  H            4.358282        5.325212       16.653478
  O            1.499639        7.170756       24.840467
  H            1.606984        6.176549       24.845884
  H            1.499961        7.500902       23.896537
  O           12.412271        9.199709       27.721437
  H           12.060234        8.679635       28.499635
  H           13.412063        9.185140       27.735668
  O            3.475894        9.096560       18.785286
  H            3.386763        8.733506       17.857790
  H            4.411799        9.418253       18.928794
  O           13.040019       13.499845        9.420259
  H           12.907656       13.002053        8.563122
  H           12.204780       13.448775        9.967768
  O            6.952376        2.591295       10.247024
  H            7.023773        2.670998       11.241283
  H            7.002326        1.627401        9.985469
  O           11.371147        6.542798        8.625323
  H           10.590035        6.942543        8.145668
  H           11.963131        6.076754        7.967784
  O           10.586713       12.637724       18.561679
  H           11.154672       11.916623       18.164898
  H            9.696052       12.259554       18.814091
  O            6.532775        4.772075       25.195193
  H            6.024350        4.835026       26.053996
  H            5.985310        5.161383       24.454435
  O           10.944450        7.108719       27.422109
  H           11.110841        6.698619       28.318843
  H           11.806227        7.170013       26.918539
  O            2.180310       13.122748       26.610372
  H            2.572959       12.284737       26.231473
  H            1.500058       13.488865       25.975380
  O            8.042598        6.941577        7.911420
  H            7.491224        7.156489        7.105318
  H            8.146416        7.762605        8.472787
  O            3.468326       13.187401       10.817363
  H            4.418032       13.500004       10.798982
  H            3.119965       13.234537       11.753537
  O           10.816080       11.849345        8.239418
  H           11.474236       11.111319        8.090593
  H           10.715052       12.012991        9.220750
  O            2.982199        4.796780        6.258927
  H            3.566826        5.497921        6.667108
  H            2.023807        5.010092        6.448617
  O            2.806498        2.279935        7.860003
  H            2.871526        3.277726        7.846438
  H            3.725027        1.886558        7.899460
  O           13.143609        2.536611       15.100711
  H           13.499931        3.467084       15.185889
  H           13.453056        2.138964       14.236928
  O            5.069705        7.588228        6.687548
  H            4.072722        7.658311        6.654194
  H            5.356405        6.719044        6.284655
  O            2.338266        3.794013       19.570163
  H            3.285054        4.109075       19.635944
  H            2.239629        3.199040       18.772493
  O            5.589953       10.307895       13.297062
  H            5.716436       11.211519       13.706287
  H            6.483027        9.896183       13.115646
  O            2.481153        9.591742        3.709485
  H            2.580824        9.863837        2.752391
  H            2.643439        8.608727        3.795177
  O            6.786326        6.873689       15.230211
  H            7.773534        6.938609       15.084592
  H            6.328156        6.736711       14.351964
  O            4.748724        5.867360        3.595866
  H            4.012818        5.771786        2.925560
  H            4.362094        5.863815        4.518094
  O            5.012679        9.467146        8.153840
  H            4.016912        9.507769        8.071399
  H            5.376150       10.392380        8.262607
  O           12.452020       10.626058        5.934735
  H           13.401009       10.392497        5.722914
  H           11.943508        9.792219        6.149508
  O            4.742888        6.526084       21.809949
  H            4.415105        5.754575       21.264667
  H            4.722067        7.358422       21.256073
  O           12.702780        9.398239       12.233583
  H           12.290033       10.044209       12.875737
  H           12.601170        8.467670       12.585317
  O           13.030183        4.411915       26.352312
  H           12.181374        3.938427       26.587540
  H           12.834678        5.375368       26.169184
  O            5.440086       13.501031       26.486404
  H            6.305578       13.005479       26.413250
  H            4.687823       12.847475       26.569868
  O            7.047791        5.622066       18.170237
  H            6.716476        5.192353       17.330251
  H            8.035056        5.766572       18.103714
  O           10.702164       11.963882       12.755340
  H           10.241868       11.089571       12.909312
  H           10.081993       12.712753       12.988960
  O            2.564132        4.184496       28.496307
  H            1.608776        4.479954       28.495698
  H            2.604002        3.185298       28.499941
  O           13.402280       11.586500        1.500009
  H           13.362677       12.470571        1.965679
  H           12.494506       11.167054        1.503351
  O            9.339847        4.853738       21.966521
  H            8.691851        5.592513       21.781285
  H            8.973544        3.992780       21.613572
  O           13.500074        5.644053       28.500090
  H           12.649566        5.128217       28.397383
  H           13.306650        6.622772       28.431573
  O           11.562800       10.248324       16.065041
  H           10.844683        9.579878       15.871424
  H           11.164846       11.165164       16.097235
  O            7.191880        8.301286       28.092822
  H            7.217737        9.214340       28.499840
  H            8.012585        8.159748       27.539278
  O            6.654110        6.582020       12.120388
  H            6.036020        5.802133       12.219085
  H            6.147046        7.430472       12.272094
  O            9.074099       10.705789        1.500005
  H            8.941401        9.714633        1.499976
  H            9.569120       10.975778        2.325874
  O            7.580436        3.444972       26.751356
  H            7.739374        3.402155       27.737716
  H            8.410913        3.762094       26.293380
  O            8.233460        5.202616        2.834583
  H            9.023432        5.806041        2.943313
  H            8.522622        4.251753        2.945239
  O            9.268476        7.741116        5.460737
  H            9.187786        8.731795        5.570488
  H            9.939265        7.538334        4.747350
  O            3.339082       10.256842       25.856352
  H            4.094357        9.739798       25.453580
  H            2.469428        9.871908       25.547276
  O           12.944834       13.166052       26.120892
  H           13.382840       13.499826       26.955605
  H           13.500110       13.419598       25.328818
  O            1.499971        2.992329       11.246957
  H            1.718408        3.791649       11.806754
  H            2.309162        2.410263       11.166903
  O            5.482669        1.500007       16.699435
  H            6.087163        1.505073       15.902842
  H            4.764363        2.184900       16.577128
  O            6.436650        7.382739        1.618815
  H            6.697602        8.341706        1.507976
  H            7.259813        6.818285        1.680407
  O            6.372322       11.871808       28.500487
  H            5.720152       12.629881       28.500369
  H            5.874975       11.004256       28.500293
  O           13.499994        4.554067       12.333261
  H           13.467995        5.530947       12.121881
  H           13.500004        4.028745       11.482358
  O            8.158471        5.553307       27.545633
  H            7.951906        5.849914       28.478025
  H            7.620509        6.092310       26.897505
  O            8.544125        4.508879       23.998838
  H            7.750075        4.367891       23.407563
  H            9.022571        3.640190       24.127168
  O           12.067008        3.787491        7.560289
  H           12.848169        4.037915        8.132194
  H           12.112792        4.288010        6.695775
  O           12.148968        3.591483       17.010663
  H           11.306238        4.061002       16.747304
  H           12.878269        4.263288       17.140271
  O            4.206470       11.533528        4.532559
  H            4.692035       11.409752        5.397952
  H            3.247132       11.747777        4.716322
  O           10.120435        1.728789       25.927038
  H            9.478883        1.877862       26.679493
  H           10.372897        2.608899       25.524958
  O            7.822738        1.499903       22.804398
  H            7.354888        2.359840       22.600377
  H            8.351120        1.599796       23.647507
  O           11.239109       10.291835        4.126094
  H           10.326568        9.885441        4.080136
  H           11.157732       11.280244        4.254254
  O            3.076877       12.383351       28.480817
  H            3.568864       13.252539       28.431204
  H            3.646120       11.655808       28.097877
  O            4.930467        5.902273       18.697879
  H            4.414662        6.580501       19.221282
  H            5.194778        5.148014       19.298905
  O            1.828017       11.670641       12.795086
  H            1.499881       12.067969       13.652090
  H            1.499786       10.729283       12.716919
  O            6.861814       10.913927       18.629047
  H            6.971158       10.020559       18.193230
  H            5.899100       11.182969       18.600805
  O            2.291814        6.601954        4.625335
  H            1.546409        6.799977        5.261855
  H            2.147574        5.702614        4.212560
  O            2.485537        5.901394       17.975429
  H            1.668487        5.362521       18.180480
  H            2.231110        6.861478       17.859221
  O            9.849823        3.653721       14.186827
  H            8.973692        3.379700       13.790210
  H            9.726312        4.488583       14.723251
  O           11.640399        2.599642        3.359891
  H           11.814240        2.407189        2.394106
  H           11.240388        3.511584        3.451287
  O            6.925237        4.699035       14.927586
  H            6.920933        4.093445       14.131821
  H            5.997574        4.775828       15.293022
  O            5.352503       13.499254       16.225088
  H            5.239428       13.499620       17.218675
  H            5.681339       12.603021       15.927377
  O            4.699796        2.477489        5.934511
  H            4.701148        3.423765        6.257869
  H            3.769062        2.212815        5.682161
  O            5.655968       13.272691        2.816197
  H            5.433312       12.299558        2.874828
  H            5.911925       13.500033        1.876622
  O           13.274341        1.960230       17.971555
  H           12.732560        1.510496       18.681634
  H           13.035396        1.579096       17.078447
  O            4.942727        3.655363        8.548123
  H            4.882741        4.623292        8.304166
  H            5.782056        3.267118        8.167609
  O            2.412466        8.804207       22.081772
  H            1.499983        9.212545       22.106972
  H            3.097770        9.525528       21.981504
  O           13.492028       12.220923       17.311670
  H           13.267676       11.258508       17.158626
  H           13.499985       12.409227       18.293748
  O           11.177299       12.641792       21.027353
  H           11.525896       11.927791       20.420160
  H           11.096098       13.499996       20.520509
  O           13.500091       11.357424        9.898874
  H           13.472751       10.803180        9.066968
  H           13.500218       10.757706       10.699084
  O           10.525573        5.840751       13.182867
  H           11.276290        6.054994       12.557947
  H           10.632863        6.367891       14.025845
  O            3.072262       12.148753       18.250191
  H            3.783653       11.794024       18.856895
  H            2.281043       11.537583       18.271211
  O            2.780692       11.771845        7.808924
  H            3.254707       11.307853        7.060578
  H            3.109323       11.415351        8.683518
  O           13.104039       10.707176       21.347304
  H           13.500053       10.170808       20.601997
  H           13.499935       11.625465       21.344020
  O           13.500001        5.607819        2.325890
  H           13.144175        5.373875        3.230687
  H           13.105294        6.476623        2.026918
  O           12.539832        2.406885        9.619028
  H           13.480379        2.285184        9.301914
  H           11.939821        1.769991        9.134929
  O            6.719852        5.054098        5.438614
  H            7.514009        5.350981        4.908354
  H            6.812519        4.083975        5.662830
  O            3.869008        2.074954       23.307400
  H            4.687144        1.500199       23.324989
  H            3.060196        1.499819       23.184755
  O           11.742400        7.548450        3.419726
  H           11.251618        6.708301        3.188899
  H           12.514782        7.330114        4.016178
  O            5.448579       12.899879       19.924712
  H            4.648867       13.499977       19.943238
  H            6.281069       13.452738       19.960869
  O           11.187428        6.149217        5.910308
  H           11.400021        5.614917        5.092184
  H           10.261934        5.930886        6.219813
  O            6.662124        9.069930       15.263463
  H            5.776699        8.798199       14.886391
  H            6.718347       10.067808       15.296288
  O            9.698258        8.532884       13.833584
  H           10.624450        8.899301       13.744664
  H            9.575771        8.155606       14.751548
  O            8.994950       11.233905       21.647849
  H            8.062081       11.354372       21.308374
  H            9.014472       11.397651       22.634158
  O            4.850845        2.274142       10.827248
  H            4.288751        2.147055       10.009998
  H            4.392222        1.862142       11.614598
  O            1.768519       12.602216       15.916354
  H            2.053755       11.658974       16.086455
  H            2.563833       13.205945       15.971011
  O           10.954523        8.886096        1.824526
  H           10.659089        7.987547        1.499981
  H           11.948610        8.959197        1.744232
  O           11.813159        9.534242       18.747435
  H           11.023525        9.673958       18.149976
  H           12.636306        9.421209       18.190970
  O           10.563549        1.499992       12.102027
  H           10.901851        2.440548       12.132127
  H            9.569115        1.499923       12.207386
  O           11.447500        3.778217       23.970261
  H           12.427050        3.577057       23.974136
  H           11.245708        4.465979       24.667586
  O            7.881884        3.731432       18.925137
  H            7.738243        4.264127       19.759165
  H            8.854852        3.729646       18.694205
  O           13.310019       10.946170       25.420147
  H           12.333310       11.149993       25.487202
  H           13.499255       10.506522       24.542139
  O           10.287199        1.499964       14.286895
  H           11.206624        1.893164       14.279705
  H            9.852523        1.684797       15.168310
  O            8.170874        5.037564       12.587304
  H            8.505564        5.454826       11.742393
  H            8.260080        5.690393       13.339537
  O            3.934624        8.643304       11.628688
  H            4.042231        7.650002       11.670793
  H            4.836032        9.076217       11.621616
  O            8.991677        2.856194        7.946331
  H            9.384838        1.936950        7.925973
  H            9.721593        3.533081        7.851218
  O            6.044597        7.771851       18.002094
  H            7.032725        7.821883       18.147352
  H            5.854333        7.215061       17.193526
